16
 energy: -17.931438513326 gnorm: 0.000198205046 xtb: 6.5.1 (579679a)
C           -2.07957049968079        0.79086191022628       -0.11561026989936
C           -1.57394509064876       -0.61910382913149       -0.13958395585280
C            0.19151027100937        1.75607719148542        0.18474543942808
H           -2.23994147280199       -1.25628836954455        0.44831147354872
C           -1.29586986524606        1.84579803829827        0.03016740921598
H            0.44994167810294        1.94726531524313        1.23215284344909
H            0.65947139159084        0.29263054204735       -1.32137935797564
C            0.71018454227401        0.38296879596208       -0.23417401926035
H           -1.60584113289112       -0.98821915612582       -1.17071970458935
H           -1.71604695232270        2.84236461745591        0.05267027380847
H            1.75387595548465        0.26955017749360        0.06582317340233
C           -0.14808775661054       -0.70703855957557        0.39839222675582
H           -3.14742091312070        0.91352446288587       -0.23777401799935
H            0.66933142105670        2.53886897204346       -0.41018810314262
H            0.27086045682548       -1.69314622135464        0.18803486557270
H           -0.16010203302128       -0.56941388740929        1.48176172353827
