16
 energy: -17.823355364405 gnorm: 0.000230209205 xtb: 6.5.1 (579679a)
C           -2.85158968367697        1.30120801321966        0.21142887118603
C           -2.40501242651037        0.05117754476990        0.17583574674941
C           -0.73725018288682        2.54986117727824        0.53207418812651
H           -1.35495668051105       -0.18057336297556        0.12399920272751
C           -2.02376246861101        2.49766998610944        0.20645472196548
H           -0.19182976650166        1.67693966213972        0.84881791922264
H           -0.12673462913906        1.65191459428258       -1.98342801305248
C            0.01998930471214        0.93116489916131       -2.77139046846053
H           -3.07800090299164       -0.78926466775127        0.18048990232195
H           -2.53570744514479        3.40964089353771       -0.07556914627897
H            1.00351781275800        0.89878450454272       -3.21163464536931
C           -0.95000242566477        0.13638458674733       -3.17194503501964
H           -3.91939348278518        1.48276127979899        0.22722091992123
H           -0.18431653052246        3.47354092071118        0.50530095530489
H           -1.93133217006596        0.17197129046193       -2.72800825530798
H           -0.80977832245772       -0.58580132203294       -3.95989686403547
