6
 energy: -13.191987037854 gnorm: 0.000114734998 xtb: 6.5.1 (579679a)
C           -5.11431735356609        1.10203276155129        0.14822652528153
Cl          -2.08200924489714        0.72353785354705        0.28357527386109
H           -4.75541703702623        1.50733268149309        1.08972156242052
H           -4.89185811347107        0.04074432395996        0.08779492811286
H           -4.65853009196269        1.62870554126272       -0.68512738295498
F           -6.48605815907675        1.27285683818588        0.08504909327899
