19
Generated by autodE on: 2021-07-06. E = -1514.610685 Ha
Cl    2.38007  -1.85335  -2.06495
Ru    2.23539  -1.16976   0.15730
Cl    2.60628  -1.49795   2.45063
C     1.14349   0.28053   0.12771
C    -0.34007   0.35162   0.08494
P     0.51179  -2.66358   0.45441
H    -0.84263  -0.57636  -0.21942
H    -0.66111   1.14673  -0.60825
H    -0.71511   0.63522   1.08703
H    -0.37390  -2.99226  -0.60469
H    -0.40815  -2.51316   1.52313
H     0.99385  -3.96372   0.75214
H     1.60557   1.28121   0.17148
C     3.86130   0.45336  -0.32053
C     4.46608  -0.69375   0.10325
H     3.68816   0.64132  -1.38327
H     3.70394   1.28139   0.37529
H     4.77904  -1.45089  -0.62311
H     4.79209  -0.81784   1.13849
