8
Generated by autodE on: 2021-10-13. E = -1457.583711 Ha
Cl    1.85690   1.10608   0.04843
C     0.72828  -0.24441  -0.17148
C    -0.67450   0.14602   0.23946
Cl   -1.33504   1.40761  -0.81177
Cl   -1.68683  -1.31513   0.20075
H     0.73791  -0.55403  -1.22588
H     1.06785  -1.08007   0.45448
H    -0.69457   0.53402   1.26600
