8
Generated by autodE on: 2021-10-13. E = -998.278862 Ha
Cl   -1.34436   1.60531  -0.15504
C    -0.74965  -0.04516   0.14129
C     0.70789  -0.19773  -0.20886
Cl    1.75776   0.78951   0.83144
H    -0.92801  -0.28102   1.19897
H    -1.34844  -0.72544  -0.48031
H     0.89576   0.10252  -1.24943
H     1.00886  -1.24799  -0.07795
