10
Generated by autodE on: 2021-10-13. E = -229.824156 Ha
O    -1.73676   0.38665  -0.65501
C    -0.54331   0.45389   0.07073
C     0.54345  -0.45490  -0.48656
O     1.73819  -0.38463   0.23665
H    -2.09831  -0.50026  -0.56059
H    -0.68338   0.22402   1.14661
H    -0.19852   1.50165   0.00980
H     0.20032  -1.50302  -0.42284
H     0.68069  -0.22639  -1.56314
H     2.09763   0.50298   0.14054
