26
Generated by autodE on: 2021-10-13. E = -2888.056806 Ha
C    -3.65323  -0.66116  -0.47790
C    -3.00609   0.69525  -0.71680
C    -1.59107   0.81600  -0.15799
C    -0.54548  -0.09372  -0.79568
C     0.73408  -0.24025   0.02270
C     1.50155   1.05772   0.24399
C     2.70283   0.92986   1.17311
C     3.71503  -0.13710   0.81623
Br    4.45219   0.07364  -0.97925
H    -4.69219  -0.67905  -0.84039
H    -3.11768  -1.47181  -0.99362
H    -3.66889  -0.90827   0.59660
H    -3.00373   0.92547  -1.79725
H    -3.62872   1.47645  -0.24942
H    -1.63014   0.60005   0.92716
H    -1.26303   1.86538  -0.24915
H    -0.29726   0.27834  -1.80611
H    -0.97210  -1.09951  -0.94012
H     1.38958  -0.96649  -0.48577
H     0.47879  -0.68741   1.00277
H     1.83872   1.45312  -0.72991
H     0.83138   1.82118   0.67065
H     2.34729   0.68305   2.19159
H     3.21687   1.90198   1.24856
H     4.58113  -0.11239   1.48877
H     3.28006  -1.14483   0.83733
