17
Generated by autodE on: 2021-10-13. E = -2770.338731 Ha
C    -2.60582   0.05402   0.19001
C    -1.22498  -0.41641   0.62162
C    -0.08356   0.20214  -0.17363
C     1.29303  -0.26609   0.28789
C     2.40821   0.36283  -0.51577
Br    4.17640  -0.18731   0.08831
H    -2.71868   1.14231   0.32434
H    -2.79371  -0.17372  -0.87190
H    -3.39664  -0.43471   0.77740
H    -1.07965  -0.18725   1.69281
H    -1.16526  -1.51613   0.53373
H    -0.21322  -0.03905  -1.24520
H    -0.14129   1.30361  -0.09446
H     1.42920  -0.01820   1.35452
H     1.36083  -1.36432   0.20523
H     2.39817   1.45893  -0.44022
H     2.35696   0.07954  -1.57647
