14
Generated by autodE on: 2021-10-13. E = -2731.100206 Ha
C     0.62555   0.32999  -1.30870
C    -0.12641  -0.19134  -0.09246
C    -1.42765   0.57168   0.14582
C     0.68882  -0.12324   1.18986
Br    2.35520  -1.12449   1.13594
H     0.91093   1.38801  -1.18163
H    -0.00017   0.25462  -2.21125
H     1.54564  -0.24565  -1.48254
H    -0.38114  -1.25042  -0.27607
H    -1.22727   1.62431   0.40931
H    -2.05445   0.56529  -0.75874
H    -2.01298   0.12731   0.96545
H     0.97446   0.91139   1.42807
H     0.12929  -0.54045   2.03694
