15
Generated by autodE on: 2021-10-13. E = -233.224214 Ha
C     1.72891   0.45044  -0.25737
C     0.94282  -0.74131   0.27226
C    -0.54917  -0.71273  -0.05915
C    -1.24641   0.60224   0.26205
O    -2.64339   0.51899   0.16580
H     1.59003   0.57869  -1.34392
H     1.42105   1.39027   0.22559
H     2.80727   0.33022  -0.07059
H     1.37744  -1.67267  -0.12681
H     1.07054  -0.79953   1.36768
H    -0.69440  -0.93647  -1.13356
H    -1.07184  -1.50985   0.49437
H    -1.02273   0.90039   1.30078
H    -0.84981   1.40988  -0.38417
H    -2.86039   0.19144  -0.71296
