20
Generated by autodE on: 2021-10-13. E = -695.935968 Ha
C    -3.19816  -0.07317   0.27615
C    -1.78615   0.13971   0.79712
C    -0.70626  -0.23687  -0.20813
C     0.69860   0.11624   0.25484
C     1.78778  -0.36189  -0.69170
C     3.17167   0.15207  -0.35751
Cl    3.29570   1.92735  -0.58619
H    -3.95561   0.19560   1.02756
H    -3.36584  -1.12463  -0.00953
H    -3.38778   0.54083  -0.61829
H    -1.63668  -0.44451   1.72159
H    -1.65452   1.19651   1.08958
H    -0.76843  -1.31937  -0.42497
H    -0.90574   0.27156  -1.16877
H     0.78056   1.21088   0.36465
H     0.87677  -0.30899   1.25931
H     1.83371  -1.46629  -0.68356
H     1.54398  -0.06881  -1.72746
H     3.43932  -0.05015   0.68959
H     3.93718  -0.29617  -1.00418
