33
Generated by autodE on: 2021-10-13. E = -468.662474 Ha
C     4.97150   0.54719  -0.03468
C     4.24090  -0.69346  -0.53173
C     2.76645  -0.76861  -0.13103
C     1.95691   0.48380  -0.44754
C     0.49437   0.42221  -0.02155
C    -0.36324  -0.59382  -0.76076
C    -1.80445  -0.67479  -0.27122
C    -2.57745   0.63368  -0.38930
C    -4.06132   0.54818  -0.04549
C    -4.38278   0.27771   1.41141
O    -4.06671  -1.05674   1.72635
H     6.04432   0.50301  -0.27794
H     4.57469   1.46529  -0.49302
H     4.87963   0.66029   1.05876
H     4.32422  -0.74443  -1.63218
H     4.75480  -1.59340  -0.15329
H     2.31071  -1.64177  -0.62668
H     2.69299  -0.96825   0.95440
H     2.01865   0.70639  -1.52934
H     2.42061   1.34467   0.06021
H     0.05650   1.42510  -0.15695
H     0.44187   0.20877   1.06292
H     0.09182  -1.59445  -0.66585
H    -0.35277  -0.35081  -1.84022
H    -2.33768  -1.45012  -0.84692
H    -1.82988  -1.02454   0.77287
H    -2.47771   1.01606  -1.42154
H    -2.11364   1.40082   0.25493
H    -4.54677  -0.23685  -0.65113
H    -4.54963   1.49677  -0.32537
H    -5.45693   0.48660   1.59017
H    -3.81381   0.98716   2.04606
H    -4.30596  -1.22138   2.64286
