26
Generated by autodE on: 2021-10-13. E = -414.170010 Ha
C    -3.51120  -0.61728  -1.10967
C    -2.76226   0.69245  -0.90124
C    -1.26543   0.52500  -0.65301
C    -0.90408  -0.11072   0.68877
C     0.59102  -0.36552   0.86099
C     1.43066   0.89515   1.05309
C     2.93620   0.64627   1.01318
C     3.48017   0.43970  -0.38385
F     3.35760   1.59700  -1.12316
H    -4.55348  -0.43957  -1.41649
H    -3.53930  -1.23267  -0.19692
H    -3.03204  -1.22201  -1.89725
H    -2.90195   1.33045  -1.78970
H    -3.21545   1.25102  -0.06240
H    -0.77439   1.50801  -0.73976
H    -0.83618  -0.09197  -1.46372
H    -1.26701   0.53488   1.50909
H    -1.44172  -1.06648   0.80438
H     0.95310  -0.92658  -0.02031
H     0.75548  -1.03305   1.72421
H     1.19154   1.63970   0.27693
H     1.15573   1.36158   2.01458
H     3.19478  -0.23805   1.62253
H     3.47621   1.49608   1.46159
H     4.54763   0.16141  -0.35758
H     2.93447  -0.35930  -0.91406
