24
Generated by autodE on: 2021-10-13. E = -350.945618 Ha
C    -3.20268  -0.07984   1.01142
C    -2.10669  -0.74048   0.19325
C    -1.39842   0.23874  -0.73512
C    -0.15588  -0.31911  -1.42632
C     1.04593  -0.55246  -0.51317
C     1.62352   0.71754   0.10440
C     2.85275   0.46857   0.96546
O     3.92069  -0.11892   0.26677
H    -3.94271   0.41887   0.36427
H    -2.77899   0.68993   1.67727
H    -3.74480  -0.80320   1.63984
H    -1.37661  -1.20856   0.87619
H    -2.52466  -1.56855  -0.40635
H    -1.13329   1.14652  -0.16467
H    -2.11551   0.57883  -1.50221
H    -0.42345  -1.26627  -1.92747
H     0.14632   0.37067  -2.23362
H     1.84697  -1.05683  -1.07771
H     0.77671  -1.25229   0.29777
H     0.86827   1.22884   0.72619
H     1.87992   1.43684  -0.69754
H     2.59247  -0.23447   1.77352
H     3.16337   1.41255   1.45868
H     4.18697   0.49337  -0.42742
