16
Generated by autodE on: 2021-10-13. E = -234.141734 Ha
C     2.37386   0.91474   2.61636
C     1.67701   0.22543   1.90466
C     0.82557  -0.57999   1.03819
C     0.04788   0.24684   0.01348
C    -0.82470  -0.60935  -0.89368
C    -1.62872   0.20789  -1.89098
H     2.99262   1.53264   3.24018
H     0.12016  -1.15619   1.66332
H     1.44698  -1.32836   0.51534
H     0.76036   0.83108  -0.59379
H    -0.57500   0.98541   0.54702
H    -1.50927  -1.21381  -0.27178
H    -0.18790  -1.33553  -1.43103
H    -2.25329  -0.43365  -2.53182
H    -2.29630   0.91686  -1.37493
H    -0.96928   0.79578  -2.55053
