11
Generated by autodE on: 2021-10-13. E = -416.024269 Ha
C    -1.20194   0.40041  -0.34913
C    -0.13113  -0.02789   0.63896
C     1.14152  -0.55266   0.01099
I     2.21794   0.94167  -1.13504
H    -2.08808   0.79128   0.17249
H    -0.82826   1.18983  -1.01909
H    -1.52697  -0.44366  -0.97847
H    -0.51993  -0.84188   1.27945
H     0.11588   0.80174   1.32100
H     1.86589  -0.89209   0.76124
H     0.95488  -1.36674  -0.70230
