17
Generated by autodE on: 2021-10-13. E = -494.504095 Ha
C    -2.62067   0.02294   0.20253
C    -1.22621  -0.40518   0.63330
C    -0.10293   0.20463  -0.19438
C     1.27979  -0.23658   0.27739
C     2.39309   0.38072  -0.53620
I     4.35685  -0.21802   0.14324
H    -2.75645   1.11160   0.30736
H    -2.81411  -0.23988  -0.85019
H    -3.39421  -0.46670   0.81168
H    -1.07320  -0.13691   1.69415
H    -1.14621  -1.50588   0.58325
H    -0.23657  -0.07311  -1.25639
H    -0.17291   1.30710  -0.15056
H     1.40662   0.03550   1.33913
H     1.35318  -1.33593   0.22250
H     2.39645   1.47761  -0.47682
H     2.35749   0.07800  -1.59177
