13
Generated by autodE on: 2021-10-13. E = -323.052173 Ha
C    -1.79297   0.11241  -0.02858
C    -0.40226  -0.40838  -0.35883
C     0.68636   0.39493   0.30810
N     2.06481  -0.15205   0.07155
O     2.97025   0.45235   0.59506
O     2.17866  -1.14366  -0.60876
H    -2.55934  -0.47803  -0.54889
H    -1.92147   1.16207  -0.33860
H    -2.00356   0.05007   1.05087
H    -0.23630  -0.39472  -1.44729
H    -0.30540  -1.45985  -0.04759
H     0.58721   0.43033   1.40330
H     0.73399   1.43432  -0.05023
