30
Generated by autodE on: 2021-10-13. E = -429.423695 Ha
C    -4.96091   0.07813   0.27063
C    -3.49796   0.44571   0.07916
C    -2.54675  -0.70987   0.37535
C    -1.10798  -0.50360  -0.09416
C    -0.42570   0.75047   0.44015
C     0.97439   1.00627  -0.11474
C     1.95971  -0.15030   0.01323
C     3.37995   0.23379  -0.37520
C     4.36463  -0.92370  -0.34605
O     5.66996  -0.54233  -0.69411
H    -5.62560   0.93417   0.07811
H    -5.15457  -0.27329   1.29771
H    -5.26104  -0.73288  -0.41108
H    -3.33894   0.79501  -0.95716
H    -3.24998   1.30589   0.72266
H    -2.94193  -1.62151  -0.10551
H    -2.55822  -0.91935   1.46103
H    -0.51836  -1.39024   0.19315
H    -1.09185  -0.47500  -1.19975
H    -0.38182   0.69564   1.54373
H    -1.04739   1.63075   0.20660
H     1.39783   1.88920   0.39423
H     0.89591   1.28773  -1.18061
H     1.62820  -0.99334  -0.61647
H     1.95407  -0.53370   1.05037
H     3.74136   1.02530   0.30791
H     3.39340   0.67761  -1.38550
H     4.33114  -1.41676   0.64827
H     4.05872  -1.68951  -1.07744
H     5.95973   0.11962  -0.05870
