18
Generated by autodE on: 2021-10-13. E = -272.466772 Ha
C    -2.60021   0.82960  -0.06195
C    -1.55380  -0.27179  -0.08233
C    -0.14368   0.22655  -0.35973
C     0.90170  -0.87918  -0.32280
C     2.32074  -0.38075  -0.49760
O     2.61883   0.50812   0.54822
H    -2.66106   1.34815  -1.03286
H    -2.36281   1.59138   0.69756
H    -3.59941   0.42707   0.16694
H    -1.82728  -1.03039  -0.83690
H    -1.56073  -0.80348   0.88551
H    -0.11593   0.73093  -1.34358
H     0.13344   0.99412   0.38091
H     0.83883  -1.40883   0.64408
H     0.69202  -1.63076  -1.10319
H     3.01224  -1.24726  -0.50307
H     2.41512   0.11715  -1.48533
H     3.49210   0.87937   0.39573
