9
Generated by autodE on: 2021-10-13. E = -451.984382 Ha
F     1.50717  -0.12691   1.25039
C     0.83571   0.18739   0.14141
F     1.57097  -0.17756  -0.90409
F     0.71649   1.52407   0.10156
C    -0.53258  -0.45740   0.12956
O    -1.27665  -0.06678  -0.97343
H    -1.01232  -0.22196   1.09917
H    -0.39102  -1.54656   0.07599
H    -1.41768   0.88582  -0.92085
