17
Generated by autodE on: 2021-10-13. E = -326.312995 Ha
C    -2.32690  -1.03039  -0.08373
C    -1.10654  -0.16302  -0.01006
C     0.17918  -0.70800  -0.05541
C     1.30162   0.12392   0.01964
C     2.69330  -0.42614  -0.06385
N     1.19197   1.45084   0.14268
C    -0.02696   1.97426   0.19342
C    -1.19885   1.22459   0.12154
H    -3.18922  -0.47683  -0.48136
H    -2.15562  -1.91052  -0.71942
H    -2.60462  -1.40255   0.91651
H     0.30996  -1.78862  -0.16311
H     3.33858   0.07185   0.67248
H     3.12360  -0.21136  -1.05627
H     2.72429  -1.51257   0.10002
H    -0.08177   3.06466   0.29978
H    -2.17211   1.71976   0.16694
