17
Generated by autodE on: 2021-10-13. E = -326.314707 Ha
C    -2.42252  -0.98013  -0.08358
C    -1.15721  -0.17685  -0.03437
C    -1.17964   1.22072   0.04695
C     0.02934   1.90569   0.09861
C     1.21649   1.18282   0.06997
C     1.15113  -0.21362  -0.00963
C     2.39120  -1.05614  -0.02781
N    -0.01297  -0.86207  -0.06497
H    -2.28601  -1.84612  -0.74455
H    -3.27644  -0.38100  -0.42889
H    -2.66455  -1.37621   0.91672
H    -2.13111   1.75672   0.06403
H     0.04650   2.99750   0.15678
H     2.18415   1.68826   0.10497
H     2.61543  -1.43130   0.98467
H     3.26531  -0.49322  -0.38317
H     2.23111  -1.93502  -0.66583
