11
Generated by autodE on: 2021-10-13. E = -2691.862086 Ha
C     1.18324  -0.49381   0.20657
C     0.11699   0.49929  -0.19717
Br    0.20276   2.05916   1.00556
C    -1.28545  -0.06685  -0.18640
H     2.18539  -0.04529   0.15377
H     1.01742  -0.85478   1.23304
H     1.15570  -1.36297  -0.47030
H     0.34976   0.92947  -1.18186
H    -1.33786  -0.93418  -0.86487
H    -1.56519  -0.40575   0.82236
H    -2.02245   0.67572  -0.52069
