14
Generated by autodE on: 2021-10-13. E = -617.459215 Ha
C    -1.53986   0.19617  -0.55021
C    -0.62964  -0.64223   0.31965
Cl   -1.53394  -1.13707   1.80361
C     0.65544   0.05249   0.74193
C     1.60932   0.31417  -0.41362
H    -1.83185   1.11880  -0.02533
H    -1.02784   0.47665  -1.48372
H    -2.45322  -0.35473  -0.81306
H    -0.38716  -1.58973  -0.18603
H     1.14900  -0.57602   1.49936
H     0.39039   0.99513   1.25067
H     1.90760  -0.62409  -0.90936
H     2.52575   0.80385  -0.05284
H     1.16591   0.96660  -1.18084
