22
Generated by autodE on: 2021-10-13. E = -349.749886 Ha
C     2.79708   0.83431   0.71986
C     2.19177   0.01733  -0.39664
C     1.39657  -1.21073   0.00493
C    -0.06953  -0.87487   0.30789
C    -0.84839  -0.38702  -0.90854
C    -2.30913  -0.04886  -0.62502
C    -2.50265   1.05265   0.40485
O     2.31139   0.34097  -1.55551
H     3.30661   1.71198   0.30397
H     2.01566   1.15796   1.42549
H     3.51045   0.22354   1.29569
H     1.85642  -1.68047   0.88881
H     1.45020  -1.92295  -0.83321
H    -0.55832  -1.77303   0.72411
H    -0.11186  -0.11933   1.11059
H    -0.79269  -1.15748  -1.69637
H    -0.34693   0.49883  -1.33500
H    -2.84410  -0.95667  -0.29231
H    -2.78862   0.25463  -1.57093
H    -2.18361   0.73547   1.41024
H    -1.92175   1.95051   0.13558
H    -3.55857   1.35324   0.48134
