14
Generated by autodE on: 2021-10-13. E = -287.067276 Ha
C    -2.14587  -0.54383  -0.21412
C    -0.68492  -0.24530  -0.05677
N     0.12168  -1.29180   0.14615
C     1.42544  -1.07662   0.27908
C     2.01192   0.18788   0.22126
C     1.17664   1.28221   0.02346
C    -0.19035   1.06426  -0.11772
H    -2.57001  -0.89111   0.74143
H    -2.28735  -1.36001  -0.93659
H    -2.71358   0.33456  -0.55040
H     2.05009  -1.96299   0.44298
H     3.09164   0.30814   0.33367
H     1.58755   2.29416  -0.02833
H    -0.87286   1.90045  -0.28400
