15
Generated by autodE on: 2021-10-13. E = -233.215047 Ha
C     1.67600   0.63996   0.44165
C     1.11814  -0.75902   0.22701
O     0.20956  -0.85489  -0.83809
C    -1.15034  -0.73946  -0.52257
C    -1.61939   0.68326  -0.26757
H     0.91291   1.34410   0.80025
H     2.08240   1.03313  -0.50229
H     2.49130   0.62209   1.18189
H     1.95004  -1.44171  -0.01462
H     0.65430  -1.14077   1.15945
H    -1.69363  -1.15588  -1.38613
H    -1.39798  -1.38518   0.34573
H    -1.23075   1.08696   0.67908
H    -2.71896   0.72607  -0.22041
H    -1.28369   1.34133  -1.08338
