16
Generated by autodE on: 2021-10-13. E = -271.272749 Ha
C     2.53020  -0.34330   0.82425
C     1.42242  -0.02701  -0.15066
C     0.00606  -0.12904   0.37606
C    -1.05613   0.26061  -0.63604
C    -2.46071   0.26219  -0.05550
O     1.65601   0.29693  -1.29074
H     3.49993  -0.18134   0.33657
H     2.45809  -1.38863   1.16568
H     2.45171   0.28788   1.72216
H    -0.14612  -1.16099   0.74524
H    -0.06025   0.49874   1.28295
H    -0.80591   1.25405  -1.04175
H    -0.99300  -0.42210  -1.49836
H    -2.54838   0.96250   0.79073
H    -2.74920  -0.73383   0.31895
H    -3.20491   0.56324  -0.80756
