19
Generated by autodE on: 2021-10-13. E = -310.513008 Ha
C    -3.27131  -0.49464   0.01600
C    -1.99577   0.07808   0.58535
C    -0.72690  -0.14751  -0.21131
C     0.53540   0.17662   0.56523
C     1.80571   0.08880  -0.26663
C     3.06841   0.37288   0.53168
O    -1.98336   0.68565   1.62867
H    -3.27881  -1.58580   0.18002
H    -3.34386  -0.32785  -1.06986
H    -4.13540  -0.05566   0.52938
H    -0.71906  -1.18242  -0.59769
H    -0.80388   0.48577  -1.11536
H     0.43202   1.18419   0.99928
H     0.60695  -0.50146   1.43244
H     1.73295   0.79382  -1.11397
H     1.87758  -0.91415  -0.72384
H     3.97019   0.28464  -0.09311
H     3.05402   1.38844   0.95996
H     3.17490  -0.32949   1.37298
