14
Generated by autodE on: 2021-10-13. E = -287.065437 Ha
C     1.83726   0.06438   0.82560
C     0.46201   0.01411   0.23250
C    -0.26037  -1.17826   0.13192
C    -1.51741  -1.16975  -0.47201
N    -2.09364  -0.07705  -0.96488
C    -1.41463   1.06327  -0.85951
C    -0.15177   1.16197  -0.28008
H     2.59157   0.13873   0.02470
H     2.06193  -0.83688   1.41328
H     1.96900   0.94328   1.47392
H     0.15324  -2.11082   0.52479
H    -2.08758  -2.10210  -0.56145
H    -1.90317   1.95854  -1.26096
H     0.35355   2.13036  -0.22784
