28
Generated by autodE on: 2021-10-13. E = -428.235127 Ha
C     4.45951  -0.62228   0.79932
C     3.18268  -0.06176   0.19157
C     2.23587   0.53303   1.22877
C     0.98400   1.14276   0.62145
C     0.00717   0.13133   0.05048
C    -0.97300   0.67612  -0.96547
C    -2.16948  -0.20478  -1.27657
C    -3.18130  -0.28546  -0.13773
C    -4.51673  -0.87899  -0.55828
O     0.01745  -1.03089   0.38557
H     5.11816  -1.05920   0.03319
H     4.23680  -1.41057   1.53508
H     5.03051   0.16338   1.32183
H     3.43587   0.71421  -0.55279
H     2.65319  -0.85628  -0.36083
H     1.93482  -0.25380   1.93889
H     2.76777   1.30421   1.81209
H     0.40878   1.70290   1.38314
H     1.23058   1.88724  -0.15472
H    -1.29578   1.68069  -0.63837
H    -0.37214   0.85489  -1.87726
H    -1.81675  -1.21621  -1.53733
H    -2.66809   0.19855  -2.17441
H    -3.35340   0.72989   0.26399
H    -2.74526  -0.87027   0.68855
H    -5.22742  -0.90679   0.28189
H    -4.40586  -1.90743  -0.93918
H    -4.97786  -0.28362  -1.36276
