8
Generated by autodE on: 2021-10-13. E = -228.669683 Ha
C    -0.95616  -0.05298   0.06426
C     0.49030   0.31501  -0.05783
O     1.28035  -0.77010  -0.01023
O     0.92403   1.42888  -0.18559
H    -1.56762   0.85486   0.03974
H    -1.12356  -0.60496   1.00083
H    -1.23800  -0.72518  -0.75880
H     2.19056  -0.44553  -0.09238
