10
Generated by autodE on: 2021-10-13. E = -192.791474 Ha
C    -1.28021   0.14373  -0.13953
C     0.00718  -0.00688   0.63727
C     1.27670  -0.14282  -0.17071
O     0.02001  -0.01512   1.84458
H    -2.12298   0.19568   0.56114
H    -1.25253   1.05928  -0.75270
H    -1.42098  -0.69911  -0.83446
H     2.13448  -0.22512   0.50848
H     1.40916   0.72463  -0.83695
H     1.22916  -1.03418  -0.81712
