17
Generated by autodE on: 2021-10-13. E = -384.184197 Ha
C    -2.59691  -0.56381  -0.54413
C    -1.69967   0.58541  -0.15924
C    -0.24186   0.30948   0.03256
C     0.29910  -0.98039  -0.02138
C     1.66515  -1.17852   0.16124
C     2.50287  -0.08821   0.38636
C     1.97140   1.20192   0.43954
C     0.60700   1.39799   0.26857
O    -2.13929   1.70571  -0.01854
H    -3.60972  -0.17945  -0.71252
H    -2.62345  -1.32630   0.24988
H    -2.23077  -1.05832  -1.45738
H    -0.34504  -1.84108  -0.20997
H     2.08167  -2.18786   0.12218
H     3.57483  -0.24608   0.52847
H     2.62598   2.05687   0.62186
H     0.15851   2.39286   0.31251
