14
Generated by autodE on: 2021-10-13. E = -287.073642 Ha
N     2.29174  -0.28703   0.05677
C     0.92149  -0.11383   0.02168
C     0.05635  -1.21907   0.08639
C    -1.32217  -1.03874   0.10922
C    -1.87674   0.23992   0.06472
C    -1.02354   1.34038  -0.00504
C     0.35651   1.17209  -0.02825
H     2.84483   0.46988  -0.32309
H     2.62964  -1.19591  -0.23230
H     0.47972  -2.22680   0.12838
H    -1.97149  -1.91578   0.16514
H    -2.95948   0.38023   0.08554
H    -1.44046   2.35023  -0.04578
H     1.01350   2.04444  -0.08338
