16
Generated by autodE on: 2021-10-13. E = -346.130064 Ha
C    -2.64405  -0.16040  -0.41907
O    -1.53098  -1.00243  -0.32917
C    -0.32072  -0.45863  -0.08110
C     0.76372  -1.34675  -0.05729
C     2.04940  -0.87332   0.16691
C     2.27967   0.48869   0.37743
C     1.20026   1.36495   0.36626
C    -0.09916   0.90444   0.14129
H    -3.50354  -0.80189  -0.65235
H    -2.84072   0.37096   0.53008
H    -2.52975   0.58978  -1.22191
H     0.56463  -2.40618  -0.23212
H     2.88538  -1.57683   0.17610
H     3.29010   0.86202   0.55678
H     1.36237   2.43173   0.54139
H    -0.92682   1.61386   0.13696
