14
Generated by autodE on: 2021-10-13. E = -344.934801 Ha
O     2.96875  -1.16934  -0.04657
C     2.32957  -0.18866   0.24033
C     0.86362  -0.06963   0.08854
C     0.13256  -1.13116  -0.46139
C    -1.24482  -1.01997  -0.60484
C    -1.89482   0.14920  -0.19764
C    -1.17236   1.20630   0.35507
C     0.20953   1.09772   0.49426
H     2.82860   0.72465   0.65732
H     0.67448  -2.02829  -0.77009
H    -1.81965  -1.84297  -1.03612
H    -2.97772   0.23842  -0.31627
H    -1.68928   2.11345   0.67622
H     0.79162   1.92016   0.92107
