16
Generated by autodE on: 2021-10-13. E = -346.149851 Ha
C     2.09001  -0.34873   0.06201
C     0.59644  -0.22293   0.00943
C    -0.23402  -1.34151  -0.09756
C    -1.62028  -1.22091  -0.15002
C    -2.19558   0.04808  -0.10194
C    -1.39266   1.17786   0.00851
C    -0.00402   1.04774   0.07639
O     0.72822   2.17775   0.20586
H     2.58667   0.26188  -0.71215
H     2.50066  -0.04031   1.04052
H     2.40282  -1.38832  -0.10513
H     0.22866  -2.33146  -0.14453
H    -2.24558  -2.11141  -0.23654
H    -3.28114   0.16470  -0.15459
H    -1.82187   2.18077   0.04935
H     1.66185   1.94700   0.25049
