12
Generated by autodE on: 2021-10-13. E = -231.812028 Ha
C    -0.30025  -1.36189   0.01422
C    -1.32908  -0.42173   0.04266
C    -1.02839   0.94002   0.02868
C     0.30030   1.36191  -0.01422
C     1.32907   0.42175  -0.04266
C     1.02834  -0.93999  -0.02868
H    -0.53733  -2.42897   0.02537
H    -2.36972  -0.75438   0.07807
H    -1.83492   1.67665   0.05301
H     0.53715   2.42912  -0.02536
H     2.36984   0.75399  -0.07808
H     1.83501  -1.67647  -0.05301
