13
Generated by autodE on: 2021-10-13. E = -232.021422 Ha
C    -1.52387   0.35711   0.16245
C    -0.51411  -0.61055  -0.43393
C     0.86894  -0.55911   0.19381
C     1.62157   0.72949   0.01684
O     1.22805   1.69022  -0.58963
H    -1.66954   0.17555   1.24007
H    -1.19341   1.39707   0.02805
H    -2.50278   0.24801  -0.32752
H    -0.89567  -1.64151  -0.34267
H    -0.41478  -0.40658  -1.51326
H     0.84006  -0.77066   1.28011
H     1.52272  -1.35035  -0.21954
H     2.63282   0.74133   0.50533
