16
Generated by autodE on: 2021-10-13. E = -213.392078 Ha
N    -2.62083   0.06046   0.61750
C    -1.40029  -0.60290   0.20743
C    -0.19600   0.31725   0.31992
C     1.10321  -0.36286  -0.08180
C     2.32081   0.54449  -0.02498
H    -3.41473  -0.57077   0.53631
H    -2.81709   0.84402  -0.00310
H    -1.24074  -1.47298   0.86740
H    -1.42943  -1.01438  -0.82633
H    -0.35484   1.20656  -0.31788
H    -0.13391   0.69642   1.35455
H     1.26569  -1.24086   0.56724
H     0.99479  -0.76793  -1.10378
H     2.18997   1.43061  -0.66617
H     2.50383   0.90991   0.99829
H     3.22956   0.02296  -0.36261
