20
Generated by autodE on: 2021-10-13. E = -385.618774 Ha
C    -3.22505   0.86116   0.88595
C    -2.49277  -0.28894   0.26072
O    -1.16804  -0.15400   0.41085
C    -0.35152  -1.11417  -0.25162
C     1.09162  -0.89760   0.14005
C     1.60485   0.51106  -0.12494
C     3.09551   0.65321   0.13037
O    -3.00284  -1.20946  -0.32115
H    -4.30452   0.68419   0.82355
H    -2.91261   0.99300   1.93162
H    -2.96661   1.78620   0.34951
H    -0.69842  -2.12657   0.00886
H    -0.48776  -0.98953  -1.34072
H     1.69381  -1.62732  -0.42733
H     1.23071  -1.15197   1.20540
H     1.04056   1.21545   0.50564
H     1.37463   0.79492  -1.16754
H     3.68271   0.00967  -0.54297
H     3.43917   1.68748  -0.02351
H     3.35648   0.36313   1.16166
