12
Generated by autodE on: 2021-10-13. E = -691.122337 Ha
Cl    3.02435  -0.47321   0.00163
C     1.31303  -0.20102  -0.00052
C     0.45125  -1.29552  -0.04667
C    -0.92404  -1.07624  -0.04591
C    -1.43333   0.22059   0.00078
C    -0.55930   1.30527   0.04564
C     0.81910   1.10216   0.04552
H     0.86389  -2.30497  -0.08527
H    -1.60096  -1.93243  -0.08454
H    -2.51277   0.38855   0.00146
H    -0.95431   2.32350   0.08421
H     1.51310   1.94331   0.08368
