24
Generated by autodE on: 2021-10-13. E = -313.908887 Ha
C    -1.89441  -0.67290  -0.84495
C    -0.83871  -0.62402   0.25332
C    -0.26641   0.79485   0.50325
C    -1.29835   1.90451   0.37287
C     0.95443   1.02699  -0.38102
C     2.11681   0.11332   0.02238
C     1.62886  -1.24789   0.54374
C     0.28673  -1.62676  -0.06913
H    -2.21148  -1.71094  -1.03174
H    -2.79452  -0.09534  -0.58947
H    -1.49647  -0.27986  -1.79575
H    -1.32260  -0.94288   1.19407
H     0.09473   0.81182   1.54783
H    -1.63283   2.03462  -0.66865
H    -2.19179   1.70321   0.98372
H    -0.87558   2.86539   0.70456
H     1.26886   2.08249  -0.33002
H     0.66684   0.84883  -1.43339
H     2.72181   0.60959   0.79903
H     2.78826  -0.02750  -0.84023
H     1.53027  -1.21842   1.64254
H     2.37626  -2.02789   0.32755
H     0.40911  -1.68642  -1.16591
H    -0.01993  -2.63472   0.25531
