14
Generated by autodE on: 2021-10-13. E = -270.073565 Ha
O     2.25080   1.09211  -0.52283
C     1.18138   0.58598  -0.30947
C     0.88213  -0.90879  -0.35456
C    -0.62465  -1.03347  -0.14949
C    -1.00049   0.22529   0.64504
C    -0.09992   1.31423   0.07470
H     1.27588  -1.35269  -1.28069
H     1.44730  -1.36993   0.47366
H    -0.92115  -1.95914   0.36534
H    -1.14300  -1.02974  -1.12194
H    -2.07170   0.46745   0.58162
H    -0.76272   0.07218   1.71228
H    -0.52442   1.73443  -0.85526
H     0.11068   2.16199   0.74139
