17
Generated by autodE on: 2021-10-13. E = -309.320036 Ha
O     2.56492   0.34150  -0.85365
C     1.52097   0.13402  -0.28285
C     0.85905  -1.22742  -0.26321
C    -0.63819  -1.15647  -0.57108
C    -1.34216  -0.14010   0.31533
C    -0.71199   1.23865   0.17855
C     0.78648   1.20845   0.48984
H     0.99708  -1.63790   0.75464
H     1.40279  -1.88266  -0.95729
H    -1.09279  -2.15322  -0.45559
H    -0.77805  -0.87039  -1.62875
H    -1.28343  -0.47273   1.36853
H    -2.41308  -0.09246   0.05986
H    -1.21529   1.96067   0.83959
H    -0.86129   1.60592  -0.85164
H     1.27962   2.17116   0.29551
H     0.92526   0.97305   1.56230
