32
Generated by autodE on: 2021-10-13. E = -393.584924 Ha
C    -5.02484   1.43600  -0.26805
C    -3.58202   1.05493   0.02514
C    -3.30264  -0.42423  -0.21024
C    -1.96562  -0.92388   0.32605
C    -0.71120  -0.30506  -0.27727
C     0.55853  -0.83119   0.37766
C     1.86122  -0.32413  -0.22270
C     3.08588  -0.75239   0.57926
C     4.42556  -0.54288  -0.12138
C     4.75656   0.90661  -0.44253
H    -5.20806   2.51017  -0.10940
H    -5.71946   0.88352   0.38316
H    -5.29883   1.19679  -1.30899
H    -2.90503   1.66920  -0.59219
H    -3.33861   1.30902   1.07289
H    -4.10255  -1.01217   0.27264
H    -3.38475  -0.64800  -1.29024
H    -1.91634  -2.01814   0.18000
H    -1.94369  -0.76345   1.42081
H    -0.68521  -0.51279  -1.36372
H    -0.73912   0.79459  -0.17078
H     0.53336  -0.57289   1.45297
H     0.55471  -1.93628   0.33268
H     1.95225  -0.69747  -1.25948
H     1.82661   0.77686  -0.29638
H     2.98539  -1.82209   0.83503
H     3.08954  -0.21638   1.54538
H     4.43687  -1.13592  -1.05312
H     5.22379  -0.96954   0.50949
H     4.79098   1.52056   0.47190
H     4.01130   1.35795  -1.11560
H     5.73543   0.99275  -0.93920
