27
Generated by autodE on: 2021-10-13. E = -390.178252 Ha
C    -4.81232  -0.41763  -0.25352
C    -3.52356  -0.28245   0.54102
C    -2.29390  -0.06857  -0.32882
C    -1.01382  -0.01450   0.47382
O     0.07380   0.12981  -0.38849
C     1.31093  -0.00195   0.24580
C     2.41488   0.13312  -0.78127
C     3.80857  -0.15412  -0.23389
C     4.23357   0.75104   0.91061
H    -4.76536  -1.26855  -0.95197
H    -5.00995   0.48466  -0.85427
H    -5.67742  -0.57610   0.40780
H    -3.37654  -1.18657   1.15898
H    -3.61639   0.55322   1.25783
H    -2.39017   0.86334  -0.91186
H    -2.19983  -0.88427  -1.06653
H    -1.04857   0.82041   1.20768
H    -0.91140  -0.94654   1.07057
H     1.38235  -0.99121   0.74935
H     1.41768   0.76001   1.04529
H     2.37620   1.14957  -1.20924
H     2.18569  -0.55823  -1.60794
H     4.53251  -0.05953  -1.06038
H     3.86144  -1.20709   0.09834
H     5.26969   0.54653   1.22068
H     4.17216   1.81216   0.61642
H     3.59945   0.61353   1.79997
