16
Generated by autodE on: 2021-10-13. E = -213.386562 Ha
C    -2.18233   0.01990   0.17952
C    -1.06595  -0.95973   0.53091
N     0.24802  -0.39755   0.74773
C     0.89766   0.19773  -0.39887
C     2.31704   0.61528  -0.05280
H    -2.30052   0.78587   0.96351
H    -1.99140   0.54471  -0.76962
H    -3.14614  -0.50474   0.08044
H    -1.35278  -1.51907   1.43863
H    -0.97912  -1.71964  -0.26676
H     0.23305   0.26007   1.52516
H     0.91957  -0.56211  -1.20092
H     0.35341   1.06749  -0.83084
H     2.84948   1.01263  -0.92999
H     2.32280   1.40274   0.71914
H     2.87730  -0.24358   0.34668
