21
Generated by autodE on: 2021-10-13. E = -311.706986 Ha
C     1.60745  -0.76687  -1.38800
C     1.18819  -0.15550  -0.05801
O    -0.02220   0.55916  -0.20201
C    -1.20468  -0.16983   0.04442
C    -2.32932   0.55635  -0.66389
C    -1.47875  -0.30723   1.53638
C     2.21905   0.80739   0.49459
H     0.81391  -1.41281  -1.79253
H     2.51779  -1.37644  -1.27980
H     1.80811   0.02876  -2.12143
H     1.04800  -0.97253   0.67732
H    -1.10655  -1.18422  -0.39493
H    -3.28867   0.04041  -0.50948
H    -2.41586   1.58004  -0.26735
H    -2.12858   0.62317  -1.74273
H    -0.63814  -0.78284   2.06289
H    -1.64680   0.68386   1.98575
H    -2.37098  -0.92607   1.71673
H     2.38617   1.63416  -0.21229
H     1.86249   1.24018   1.44089
H     3.17934   0.30094   0.67368
