10
Generated by autodE on: 2021-10-13. E = -875.528102 Ha
C     1.83121  -0.03489  -0.04132
S     0.70333   1.33952   0.30074
S    -0.96589   0.36759   1.00562
C    -1.80928  -0.11220  -0.52594
H     1.42208  -0.70517  -0.80997
H     2.05165  -0.60193   0.87359
H     2.75958   0.41695  -0.42317
H    -2.70190  -0.67867  -0.21931
H    -1.17432  -0.76292  -1.14347
H    -2.11654   0.77183  -1.10067
