14
Generated by autodE on: 2021-10-13. E = -307.083680 Ha
O    -0.43604  -1.17005   0.69085
C     0.94262  -0.88626   0.65425
C     1.21204   0.48698   0.02952
O     0.17646   1.36539   0.36483
C    -1.05156   0.97308  -0.20225
C    -1.13455  -0.54898  -0.34792
H     1.29282  -0.90722   1.69780
H     1.49578  -1.67042   0.09779
H     2.14937   0.91009   0.41950
H     1.32710   0.41117  -1.07178
H    -1.83486   1.34132   0.47591
H    -1.20965   1.45480  -1.18971
H    -0.74802  -0.87938  -1.33372
H    -2.18130  -0.88050  -0.28467
