22
Generated by autodE on: 2021-10-13. E = -291.865541 Ha
C     3.43815   0.39707   0.19696
C     1.93336   0.61064   0.18285
C     1.16444  -0.70905   0.09416
N    -0.27023  -0.64498   0.22738
C    -1.01907  -0.04967  -0.85455
C    -2.51428  -0.30904  -0.69025
C    -3.05746   0.10120   0.67272
H     3.73864  -0.25372   1.03408
H     3.98808   1.34398   0.29830
H     3.78388  -0.09377  -0.72763
H     1.65083   1.26939  -0.65598
H     1.62124   1.14250   1.10026
H     1.39960  -1.20549  -0.86509
H     1.54913  -1.38789   0.87624
H    -0.51318  -0.19524   1.10633
H    -0.85074   1.04551  -0.97378
H    -0.67440  -0.50988  -1.79625
H    -2.70495  -1.38433  -0.84345
H    -3.05802   0.22627  -1.48570
H    -2.58905  -0.49098   1.47323
H    -2.87348   1.16852   0.88527
H    -4.14247  -0.07095   0.74472
