10
Generated by autodE on: 2021-10-13. E = -552.629474 Ha
O    -0.16996  -1.83675  -1.11223
S    -0.18755  -0.33732  -1.16693
C    -1.31967   0.19467   0.14614
C     1.35326   0.22108  -0.38214
H    -2.30899  -0.17969  -0.15076
H    -1.33828   1.29064   0.23300
H    -1.01567  -0.28337   1.08890
H     1.42051   1.31889  -0.40115
H     2.16187  -0.21599  -0.98254
H     1.40468  -0.17216   0.64392
