9
Generated by autodE on: 2021-10-13. E = -154.746031 Ha
C     0.89581   0.16404   0.09861
C    -0.48153  -0.46582   0.02235
O    -1.39148   0.27963  -0.74253
H     0.86577   1.13644   0.61862
H     1.59732  -0.47979   0.65070
H     1.29853   0.33331  -0.91135
H    -0.86718  -0.65265   1.04581
H    -0.41309  -1.45128  -0.46493
H    -1.50414   1.13602  -0.31708
