19
Generated by autodE on: 2021-10-13. E = -385.374967 Ha
C     3.29819  -0.42589   0.47644
C     1.96661   0.28250   0.43635
O     0.99027  -0.63745   0.00662
C    -0.30605  -0.26545   0.01369
C    -0.75949   1.00486   0.38766
C    -2.12847   1.28036   0.37981
C    -3.05065   0.31101   0.00097
C    -2.59090  -0.95256  -0.38083
C    -1.23332  -1.24208  -0.37776
H     3.26117  -1.28116   1.16618
H     3.57195  -0.80368  -0.51960
H     4.08414   0.26316   0.81790
H     1.70464   0.67388   1.43741
H     1.99826   1.14932  -0.25076
H    -0.05800   1.78183   0.68997
H    -2.47360   2.27145   0.68464
H    -4.11920   0.53742   0.00059
H    -3.30062  -1.72558  -0.68466
H    -0.85494  -2.22194  -0.67544
