14
Generated by autodE on: 2021-10-13. E = -307.139065 Ha
C    -2.39030   0.20271   0.36627
C    -1.02142  -0.38703   0.20096
O    -0.09933   0.36443   0.81873
C     1.24836  -0.10461   0.78516
C     1.92035   0.21156  -0.53204
O    -0.77068  -1.40934  -0.38249
H    -2.70772   0.08321   1.41384
H    -3.09610  -0.31636  -0.28961
H    -2.37494   1.27962   0.14610
H     1.74589   0.40508   1.62203
H     1.25623  -1.18904   0.97671
H     2.96834  -0.12436  -0.50983
H     1.90768   1.29407  -0.73006
H     1.41355  -0.31014  -1.35466
