12
Generated by autodE on: 2021-10-13. E = -330.883402 Ha
F     2.49183  -0.98888   0.04050
C     1.25498  -0.49717   0.01858
C     1.07572   0.87932  -0.03873
C    -0.22293   1.38449  -0.05602
C    -1.31793   0.52203  -0.01799
C    -1.11155  -0.85625   0.03623
C     0.18085  -1.37659   0.05424
H     1.95176   1.52946  -0.07026
H    -0.38043   2.46494  -0.10191
H    -2.33218   0.92655  -0.03064
H    -1.96456  -1.53750   0.06750
H     0.37444  -2.45040   0.09849
