23
Generated by autodE on: 2021-10-13. E = -275.865929 Ha
C     3.62662   0.09109  -0.74074
C     2.28536  -0.59637  -0.53126
C     1.20928   0.32343   0.03024
C    -0.15431  -0.34034   0.16418
C    -1.24168   0.59226   0.68537
C    -2.65428   0.01607   0.61650
C    -3.20483  -0.09916  -0.79740
H     4.37223  -0.59274  -1.17336
H     4.03468   0.47234   0.20970
H     3.53297   0.95335  -1.42029
H     1.92951  -1.01802  -1.48853
H     2.41079  -1.46232   0.14206
H     1.53211   0.71691   1.01202
H     1.11454   1.20941  -0.62316
H    -0.44710  -0.74301  -0.82168
H    -0.07667  -1.21979   0.82839
H    -1.00449   0.87161   1.72698
H    -1.21570   1.53519   0.11047
H    -2.66854  -0.97490   1.10431
H    -3.32987   0.64878   1.21497
H    -2.56877  -0.73284  -1.43371
H    -4.21314  -0.54027  -0.80409
H    -3.26872   0.88972  -1.27986
