16
Generated by autodE on: 2021-10-13. E = -346.149543 Ha
C     2.27843  -0.49022  -0.18753
C     0.85260  -0.03754  -0.05152
C    -0.18556  -0.97652  -0.01585
C    -1.51985  -0.57451   0.08478
O    -2.54507  -1.45328   0.11515
C    -1.83130   0.78745   0.15738
C    -0.80482   1.72135   0.12535
C     0.52815   1.32016   0.02179
H     2.48135  -0.86208  -1.20608
H     2.51190  -1.31160   0.50584
H     2.98015   0.33090   0.01465
H     0.05113  -2.04553  -0.07161
H    -2.19271  -2.34883   0.07908
H    -2.87723   1.08632   0.24586
H    -1.05078   2.78483   0.18671
H     1.32360   2.06900  -0.00391
