21
Generated by autodE on: 2021-10-13. E = -349.544878 Ha
C     3.11604   0.61142  -0.33243
C     1.70517   0.11632  -0.19187
C     1.39017  -1.24025  -0.29240
C     0.06948  -1.67295  -0.18691
C    -0.97812  -0.77672   0.02798
C    -2.39111  -1.26084   0.16406
C    -0.67490   0.59560   0.13882
C    -1.76521   1.59325   0.39218
C     0.65243   1.01231   0.02279
H     3.84493  -0.19666  -0.17670
H     3.33800   1.41043   0.39001
H     3.29247   1.03154  -1.33753
H     2.18601  -1.97096  -0.46167
H    -0.15533  -2.74026  -0.27415
H    -2.47331  -2.32944  -0.08015
H    -3.07933  -0.71140  -0.49609
H    -2.76702  -1.12037   1.19221
H    -1.36810   2.61759   0.41877
H    -2.54830   1.55005  -0.38219
H    -2.26964   1.40068   1.35436
H     0.87547   2.08076   0.11103
