17
Generated by autodE on: 2021-10-13. E = -346.374391 Ha
C    -1.93200   0.98624   0.18417
C    -1.44389  -0.02035  -0.84582
C    -0.64221  -1.17018  -0.24377
C     0.72062  -0.80555   0.28785
O     1.35183   0.06126  -0.51975
C     2.66659   0.42635  -0.14126
O     1.22119  -1.25213   1.28568
H    -1.09237   1.45974   0.71891
H    -2.51510   1.79040  -0.29080
H    -2.57627   0.50678   0.93894
H    -0.82311   0.48596  -1.60161
H    -2.30607  -0.44549  -1.38522
H    -1.18369  -1.66108   0.57867
H    -0.46717  -1.94171  -1.01312
H     3.35175  -0.43020  -0.23308
H     2.69418   0.78279   0.89931
H     2.97574   1.22707  -0.82264
