21
Generated by autodE on: 2021-10-13. E = -274.668771 Ha
C     2.27746  -0.81522   0.15229
C     0.82546  -0.40414   0.33404
C     0.66147   1.12451   0.27010
C    -0.76244   1.56021  -0.10795
C    -1.80168   0.54978   0.36019
C    -1.57909  -0.83261  -0.27783
C    -0.11613  -1.05545  -0.67624
H     2.42494  -1.89016   0.34293
H     2.61726  -0.60474  -0.87586
H     2.93757  -0.26046   0.83628
H     0.50402  -0.74467   1.33670
H     0.95770   1.55835   1.23988
H     1.37391   1.53142  -0.46818
H    -0.84061   1.66669  -1.20331
H    -0.98260   2.55586   0.30839
H    -1.74245   0.47082   1.45976
H    -2.81701   0.91498   0.13758
H    -2.22568  -0.95743  -1.16095
H    -1.88863  -1.61467   0.43464
H     0.09189  -2.13352  -0.77105
H     0.08454  -0.61943  -1.67163
