11
Generated by autodE on: 2021-10-13. E = -267.894126 Ha
C     1.81910   0.19377  -0.02983
C     0.43892  -0.39423  -0.00409
O    -0.49684   0.56589   0.02681
C    -1.84041   0.11965   0.04218
O     0.17515  -1.56774  -0.02328
H     2.00968   0.63287  -1.02157
H     1.91399   1.00335   0.70581
H     2.55384  -0.59495   0.16545
H    -2.09714  -0.39383  -0.89739
H    -2.01512  -0.58002   0.87198
H    -2.46098   1.01523   0.16392
