18
Generated by autodE on: 2021-10-13. E = -459.286772 Ha
O     1.55775  -1.76088  -0.37274
C     1.20226  -0.62785  -0.16210
O     2.05841   0.38689   0.00653
C     3.43135   0.04924  -0.06398
C    -0.21802  -0.20435  -0.04961
C    -0.59418   1.13067   0.13262
C    -1.94217   1.46297   0.23583
C    -2.91466   0.46602   0.16539
C    -2.54065  -0.86619  -0.01428
C    -1.19580  -1.20083  -0.12504
H     3.98777   0.96784   0.15575
H     3.68151  -0.73080   0.66892
H     3.69275  -0.32689  -1.06470
H     0.17720   1.89951   0.19476
H    -2.23983   2.50411   0.38145
H    -3.97156   0.73048   0.25450
H    -3.30207  -1.64718  -0.07064
H    -0.87017  -2.23266  -0.27275
