8
Generated by autodE on: 2021-10-13. E = -228.642439 Ha
O     1.35776   1.12496   0.12999
C     1.28764   0.03559  -0.36051
O     0.17886  -0.69098  -0.47921
C    -1.00999  -0.09507   0.02159
H     2.14367  -0.52856  -0.78451
H    -1.76787  -0.88649   0.03942
H    -0.85211   0.31526   1.03036
H    -1.33796   0.72528  -0.63314
