15
Generated by autodE on: 2021-10-13. E = -287.296717 Ha
C     1.93793  -0.55220   0.07544
C     0.86275   0.18415  -0.69410
N    -0.39822   0.21014  -0.15328
C    -1.42242   0.94915  -0.84767
C    -0.82937  -0.53697   0.99723
O     1.11905   0.74320  -1.74467
H     1.77116  -1.64090   0.06477
H     2.89063  -0.33875  -0.42200
H     1.99757  -0.22698   1.12472
H    -0.94277   1.52369  -1.64849
H    -2.17552   0.27599  -1.29441
H    -1.94154   1.63368  -0.15538
H    -1.30959   0.12631   1.73872
H     0.00973  -1.04171   1.48795
H    -1.56940  -1.30871   0.71688
