50
Generated by autodE on: 2021-10-13. E = -629.019097 Ha
C    -6.64776   0.99178  -0.70865
C    -5.82989   0.13712  -1.66963
C    -5.03412  -1.01115  -1.04910
C    -3.74392  -0.65346  -0.31219
C    -3.88874   0.01382   1.05680
C    -2.60223  -0.00766   1.88037
C    -1.46811   0.82330   1.28689
C    -0.09023   0.58766   1.90184
C     0.45152  -0.83439   1.75859
C     0.66082  -1.32563   0.32753
C     1.70003  -0.56794  -0.49727
C     3.08894  -0.52029   0.12837
C     4.18714  -0.08137  -0.83337
C     5.57206  -0.07766  -0.19642
C     6.72967   0.17835  -1.15935
C     6.82815   1.60504  -1.68361
H    -7.31936   0.36865  -0.09508
H    -6.01953   1.57130  -0.01658
H    -7.27544   1.70966  -1.26004
H    -5.14353   0.78249  -2.24841
H    -6.52006  -0.29714  -2.41382
H    -4.76120  -1.70611  -1.86069
H    -5.69719  -1.58853  -0.37771
H    -3.12312  -0.02542  -0.97474
H    -3.16673  -1.58551  -0.17224
H    -4.68147  -0.50646   1.62096
H    -4.23138   1.05627   0.94559
H    -2.81290   0.34875   2.90370
H    -2.28123  -1.05841   1.99013
H    -1.40781   0.63895   0.20058
H    -1.72594   1.89266   1.38996
H     0.62032   1.29873   1.44717
H    -0.11901   0.84772   2.97485
H     1.40308  -0.90657   2.31071
H    -0.22724  -1.53631   2.27097
H     0.96585  -2.38594   0.37488
H    -0.30149  -1.31773  -0.21391
H     1.77231  -1.05525  -1.48525
H     1.35380   0.46058  -0.70382
H     3.34299  -1.52184   0.52405
H     3.08276   0.14917   1.00596
H     3.94412   0.91493  -1.24449
H     4.19569  -0.76429  -1.70221
H     5.60190   0.66374   0.62331
H     5.72829  -1.05695   0.28857
H     7.67312  -0.08335  -0.64967
H     6.64596  -0.52207  -2.00916
H     7.65243   1.71680  -2.40491
H     7.01326   2.31641  -0.86311
H     5.90543   1.92307  -2.19506
