17
Generated by autodE on: 2021-10-13. E = -326.305754 Ha
C     2.64780  -0.28373   0.03046
N     1.57567   0.60408  -0.29456
C     0.24895   0.30619  -0.12743
C    -0.73554   1.21521  -0.56776
C    -2.08500   0.93503  -0.40843
C    -2.50360  -0.25372   0.19506
C    -1.53720  -1.15323   0.63823
C    -0.17818  -0.88924   0.48245
H     2.62829  -1.21787  -0.56166
H     3.60311   0.22172  -0.16671
H     2.64162  -0.57304   1.09745
H     1.79403   1.45776  -0.78343
H    -0.42025   2.14960  -1.04231
H    -2.82230   1.65840  -0.76508
H    -3.56571  -0.47652   0.31847
H    -1.84596  -2.08635   1.11706
H     0.55417  -1.61438   0.83851
