9
Generated by autodE on: 2021-10-13. E = -208.816876 Ha
O     1.22869  -1.56817  -0.02066
C     1.30489  -0.36160  -0.04426
N     0.25254   0.49210  -0.03428
C    -1.11219   0.04312   0.04028
H     2.27945   0.18525  -0.08174
H     0.45192   1.48391  -0.03905
H    -1.09847  -1.05337  -0.01744
H    -1.59064   0.34063   0.98851
H    -1.71610   0.43803  -0.79136
