29
Generated by autodE on: 2021-10-13. E = -354.343549 Ha
C    -4.52048   0.25567  -0.13139
C    -3.18483  -0.44859   0.05513
C    -2.09621   0.44262   0.64644
C    -0.71065  -0.20189   0.65846
C    -0.07675  -0.27800  -0.72557
C     1.16406  -1.15479  -0.84402
C     2.40038  -0.72208  -0.06049
C     2.84146   0.71737  -0.30784
C     4.26476   0.99878   0.15128
H    -4.91903   0.62780   0.82661
H    -4.42304   1.12519  -0.80099
H    -5.27515  -0.41560  -0.56840
H    -2.84837  -0.84771  -0.91722
H    -3.31482  -1.33208   0.70431
H    -2.04794   1.38680   0.07466
H    -2.38855   0.73076   1.67133
H    -0.78608  -1.21820   1.08736
H    -0.04816   0.36087   1.33663
H     0.15198   0.74535  -1.07388
H    -0.82208  -0.66612  -1.43887
H     1.43977  -1.20734  -1.91246
H     0.89695  -2.18512  -0.54781
H     2.24529  -0.87383   1.02330
H     3.22602  -1.40170  -0.33542
H     2.14558   1.40823   0.19783
H     2.75644   0.94767  -1.38519
H     4.53911   2.05499   0.00318
H     4.98904   0.38936  -0.41109
H     4.40131   0.76160   1.21952
