47
Generated by autodE on: 2021-10-13. E = -589.778860 Ha
C    -6.18197   0.04592   0.87176
C    -5.68851  -1.22729   0.19385
C    -4.18685  -1.32344  -0.08143
C    -3.57627  -0.35970  -1.10183
C    -3.45641   1.11593  -0.70806
C    -2.83760   1.38721   0.66360
C    -1.42473   0.84507   0.85516
C    -0.34760   1.49906  -0.00439
C     0.89314   0.63191  -0.16404
C     2.04233   1.33434  -0.87520
C     3.19728   0.41810  -1.26189
C     3.91669  -0.22960  -0.08365
C     5.05382  -1.14392  -0.51617
C     5.81912  -1.80373   0.62603
C     6.61741  -0.83995   1.49485
H    -6.13776   0.91820   0.20557
H    -7.22681  -0.06100   1.20187
H    -5.58435   0.28532   1.76505
H    -6.23966  -1.37800  -0.75146
H    -5.96390  -2.08590   0.82976
H    -3.64389  -1.24366   0.87636
H    -3.98571  -2.34658  -0.44349
H    -4.15010  -0.42444  -2.04267
H    -2.57066  -0.73968  -1.35376
H    -2.86550   1.62889  -1.48572
H    -4.44588   1.59724  -0.74443
H    -3.48649   0.95777   1.44322
H    -2.84283   2.47605   0.84838
H    -1.13987   0.95105   1.91690
H    -1.42666  -0.24209   0.65820
H    -0.74423   1.72870  -1.00852
H    -0.07017   2.47464   0.43254
H     1.22249   0.27053   0.82622
H     0.61683  -0.27659  -0.73136
H     2.42052   2.15278  -0.23552
H     1.64936   1.82364  -1.78345
H     3.93253   0.99105  -1.85374
H     2.82495  -0.37424  -1.93698
H     3.20191  -0.81584   0.52116
H     4.29609   0.56472   0.58396
H     5.76305  -0.57197  -1.14288
H     4.64002  -1.92911  -1.17346
H     5.11252  -2.37075   1.25938
H     6.50609  -2.55469   0.20000
H     7.20959  -1.38017   2.24975
H     5.96965  -0.13124   2.03484
H     7.31880  -0.24456   0.88689
