35
Generated by autodE on: 2021-10-13. E = -432.824731 Ha
C    -6.08535   0.30656  -0.67919
C    -4.66435   0.81749  -0.50422
C    -3.61117  -0.28363  -0.53934
C    -2.19959   0.22398  -0.29147
C    -1.11940  -0.84870  -0.32882
C     0.26496  -0.29914  -0.01679
C     1.39683  -1.30828  -0.16949
C     2.75522  -0.83183   0.35089
C     3.16719   0.56048  -0.11728
C     4.48236   1.07029   0.46376
C     5.73711   0.33814   0.01422
H    -6.20909  -0.21295  -1.64356
H    -6.81933   1.12588  -0.64138
H    -6.34932  -0.41416   0.11064
H    -4.58286   1.36364   0.45234
H    -4.43500   1.56081  -1.28822
H    -3.86019  -1.05250   0.21380
H    -3.65210  -0.80163  -1.51505
H    -2.16817   0.73621   0.68753
H    -1.96074   1.00385  -1.03672
H    -1.36800  -1.65195   0.38739
H    -1.11196  -1.32970  -1.32400
H     0.45128   0.56641  -0.67428
H     0.26491   0.10744   1.01180
H     1.48517  -1.58607  -1.23541
H     1.12367  -2.23935   0.35666
H     3.52105  -1.57054   0.05837
H     2.74282  -0.83668   1.45697
H     2.37849   1.27630   0.16622
H     3.21156   0.58725  -1.22259
H     4.58350   2.13732   0.19961
H     4.41435   1.03674   1.56672
H     5.73265  -0.72117   0.31721
H     5.84746   0.37382  -1.08207
H     6.63605   0.79567   0.45477
