10
Generated by autodE on: 2021-10-13. E = -283.812385 Ha
C    -0.98711   0.02330   0.62342
C     0.04774  -0.46965  -0.35603
N     1.22582   0.45470  -0.45900
O     1.63607   0.94803   0.56514
O     1.69931   0.61564  -1.55886
H    -0.55797   0.11656   1.62956
H    -1.82478  -0.68767   0.65924
H    -1.38725   1.00188   0.32078
H     0.47921  -1.43379  -0.04437
H    -0.33103  -0.56909  -1.37989
