17
Generated by autodE on: 2021-10-13. E = -475.199680 Ha
C    -1.71718  -1.33027   0.00231
C    -0.41142  -0.59164   0.03404
C     0.77824  -1.32393   0.16145
C     2.02755  -0.71532   0.17600
C     2.13544   0.66977   0.04567
C     0.98187   1.42679  -0.09313
C    -0.26225   0.79669  -0.08168
N    -1.42329   1.68627  -0.19012
O    -1.31531   2.64346  -0.92434
O    -2.39999   1.42699   0.47910
H    -1.65932  -2.15582  -0.72206
H    -1.92576  -1.77356   0.98869
H    -2.56683  -0.68797  -0.24595
H     0.70607  -2.41115   0.25325
H     2.92475  -1.32801   0.28711
H     3.11179   1.15846   0.05217
H     1.01555   2.50913  -0.22262
