17
Generated by autodE on: 2021-10-13. E = -197.386174 Ha
C    -2.30997  -0.66276   0.23123
C    -0.86040  -0.28723   0.50502
C    -0.22841   0.53430  -0.61349
C     1.22589   0.92845  -0.36431
C     2.20932  -0.23177  -0.41777
H    -2.93635   0.23455   0.10082
H    -2.74325  -1.25356   1.05279
H    -2.40316  -1.26182  -0.68932
H    -0.27267  -1.20571   0.67450
H    -0.79307   0.28447   1.44766
H    -0.82878   1.44820  -0.76687
H    -0.29783  -0.02875  -1.56245
H     1.30097   1.43114   0.61664
H     1.52575   1.68328  -1.11003
H     3.23606   0.11001  -0.21385
H     1.96860  -1.01420   0.31792
H     2.20738  -0.70871  -1.41220
