23
Generated by autodE on: 2021-10-13. E = -424.857360 Ha
C     4.29774  -0.19359  -0.83937
C     3.19233   0.37697  -0.00078
O     1.99823  -0.13503  -0.32710
C     0.88665   0.43206   0.35792
C    -0.39875  -0.05651  -0.26282
C    -1.60825   0.57313   0.41748
C    -2.95060   0.29989  -0.25282
C    -3.36752  -1.16073  -0.28037
O     3.33587   1.21875   0.84682
H     4.03789  -1.18162  -1.23934
H     4.47933   0.48353  -1.68753
H     5.21728  -0.23625  -0.24295
H     0.94645   0.15987   1.42591
H     0.96047   1.53066   0.30314
H    -0.39418   0.20082  -1.33686
H    -0.43900  -1.15658  -0.19564
H    -1.45836   1.66666   0.45734
H    -1.64935   0.23260   1.46854
H    -2.92251   0.69697  -1.28323
H    -3.72226   0.88907   0.26936
H    -2.66343  -1.77755  -0.85872
H    -3.41977  -1.58269   0.73626
H    -4.35816  -1.28061  -0.74433
