17
Generated by autodE on: 2021-10-13. E = -346.390825 Ha
C    -2.01108   0.69132   0.03708
C    -1.13941  -0.09723  -0.92996
C    -0.20008  -1.09617  -0.26043
C     0.88414  -0.45918   0.59628
C     1.95193   0.22094  -0.21876
O     2.66046   1.10617   0.49793
O     2.19180  -0.00438  -1.37624
H    -1.41517   1.31177   0.72594
H    -2.69053   1.36981  -0.50143
H    -2.63129   0.02065   0.65541
H    -0.54687   0.59250  -1.55585
H    -1.78773  -0.64925  -1.63134
H    -0.79076  -1.78483   0.36711
H     0.29061  -1.70813  -1.03317
H     1.40665  -1.22557   1.19575
H     0.48483   0.26066   1.32760
H     3.34229   1.45092  -0.09949
