9
Generated by autodE on: 2021-10-13. E = -171.733680 Ha
C    -0.93783  -0.41044  -0.01904
C     0.22238   0.58166   0.02163
C     1.52815  -0.06712   0.00718
N     2.55302  -0.60397  -0.00902
H    -0.90617  -1.02208  -0.93258
H    -0.90949  -1.09258   0.84313
H    -1.89358   0.13272   0.00055
H     0.16639   1.21030   0.92554
H     0.17723   1.27151  -0.83728
