13
Generated by autodE on: 2021-10-13. E = -174.152662 Ha
N    -1.37123   0.91002  -0.22693
C    -0.87614  -0.20266   0.56192
C     0.42398  -0.76757   0.00476
C     1.54175   0.25555  -0.10653
H    -1.69914   0.57621  -1.13221
H    -2.17433   1.33846   0.22626
H    -0.68951   0.16927   1.58528
H    -1.59986  -1.04005   0.66338
H     0.22250  -1.21212  -0.98750
H     0.73776  -1.60848   0.64656
H     1.21399   1.11481  -0.70831
H     2.44162  -0.17720  -0.56972
H     1.82861   0.64376   0.88465
