11
Generated by autodE on: 2021-10-13. E = -247.819738 Ha
C     0.95216  -1.10390   0.05873
N    -0.29251  -1.57180   0.08322
C    -1.28662  -0.68803   0.03665
C    -1.08885   0.69092  -0.03621
C     0.21837   1.17080  -0.06156
C     1.26431   0.25382  -0.01315
H     1.75300  -1.85106   0.10071
H    -2.30408  -1.09693   0.05844
H    -1.94356   1.36951  -0.07485
H     0.42215   2.24342  -0.12123
H     2.30554   0.58336  -0.03076
