15
Generated by autodE on: 2021-10-13. E = -704.995499 Ha
O     2.07950   1.52773  -0.30454
S     1.09176   0.85373   0.53010
C     1.02031  -0.90777   0.10186
C    -0.46268  -1.22115   0.03878
C    -1.12111  -0.03428  -0.67515
C    -0.59699   1.24682  -0.03932
O     1.12309   0.96951   1.98706
H     1.52404  -1.01338  -0.86952
H     1.58387  -1.43797   0.87953
H    -0.86557  -1.32004   1.05991
H    -0.65544  -2.16730  -0.48729
H    -0.83944  -0.05391  -1.74120
H    -2.21844  -0.08579  -0.62190
H    -0.51782   2.10148  -0.72390
H    -1.14500   1.54213   0.86569
