22
Generated by autodE on: 2021-10-13. E = -387.589465 Ha
C     0.28863  -0.70173  -0.24014
C     0.45255   0.60022   0.25988
C    -0.73621   1.47952   0.55636
C    -2.01746   1.03534  -0.13629
C    -2.22724  -0.46212   0.03176
C    -1.07665  -1.24331  -0.58770
C     1.74585   1.06989   0.52230
C     2.86636   0.27689   0.30712
C     2.70291  -1.01841  -0.18369
C     1.42429  -1.49256  -0.45363
H    -0.49414   2.52145   0.29042
H    -0.89945   1.47525   1.65049
H    -1.96341   1.27952  -1.21214
H    -2.87238   1.59834   0.26955
H    -3.17839  -0.77867  -0.42477
H    -2.30017  -0.69986   1.10780
H    -1.13206  -2.30432  -0.29387
H    -1.18046  -1.22940  -1.68875
H     1.86793   2.08321   0.91565
H     3.86292   0.66845   0.52658
H     3.57201  -1.65490  -0.36479
H     1.29466  -2.50301  -0.85224
