13
Generated by autodE on: 2021-10-13. E = -232.017669 Ha
C    -0.83084  -0.65604  -0.05626
C     0.20496  -0.32122   1.01120
C     1.27935   0.33116   0.15873
O     0.57924   1.08517  -0.80379
C    -0.72199   0.55427  -0.98511
H    -1.84518  -0.80798   0.34011
H    -0.53848  -1.57476  -0.59052
H    -0.20440   0.40947   1.72814
H     0.56283  -1.19406   1.57630
H     1.91184  -0.44286  -0.32497
H     1.94649   1.00342   0.72057
H    -1.46466   1.33263  -0.73065
H    -0.87907   0.28071  -2.04384
