9
Generated by autodE on: 2021-10-13. E = -552.455513 Ha
C    -1.22877   0.57606   0.01683
C    -0.71862  -0.69579  -0.01647
C     0.70498  -0.70962  -0.01766
C     1.23962   0.55211   0.01484
S     0.01711   1.75533   0.04774
H    -2.27286   0.88702   0.02180
H    -1.34061  -1.59127  -0.04126
H     1.30958  -1.61692  -0.04359
H     2.28948   0.84307   0.01778
