13
Generated by autodE on: 2021-10-13. E = -629.745015 Ha
S     2.80529   0.48349  -0.27784
C     1.06948   0.20642  -0.09658
C     0.23301   1.32947  -0.05089
C    -1.14633   1.16990   0.04192
C    -1.70984  -0.10388   0.10012
C    -0.87764  -1.22108   0.06843
C     0.50335  -1.07259  -0.03297
H     3.19873  -0.76965   0.02966
H     0.66704   2.33206  -0.08312
H    -1.78593   2.05481   0.07722
H    -2.79260  -0.22764   0.17604
H    -1.30879  -2.22418   0.11852
H     1.14412  -1.95702  -0.07070
