15
Generated by autodE on: 2021-10-13. E = -271.056121 Ha
C     2.22130   0.03794  -0.01136
C     0.72169   0.01803  -0.01450
C     0.02696  -1.19481   0.06851
C    -1.36484  -1.22458   0.08570
C    -2.09107  -0.03653   0.01727
C    -1.41374   1.17777  -0.06652
C    -0.01981   1.20229  -0.08211
H     2.61811  -0.10517   1.00779
H     2.63658  -0.76864  -0.63243
H     2.61433   0.99222  -0.39041
H     0.59127  -2.13035   0.12270
H    -1.88798  -2.18158   0.15368
H    -3.18368  -0.05895   0.02627
H    -1.97466   2.11344  -0.12846
H     0.50555   2.15891  -0.15614
