44
Generated by autodE on: 2021-10-13. E = -1114.221495 Ha
O     0.21656  -1.66423   2.04653
P     0.52469  -1.06527   0.73507
O    -0.75602  -0.70363  -0.17810
C    -2.03020  -1.30401   0.06823
C    -3.11295  -0.32093  -0.32752
C    -4.52242  -0.74209   0.08727
C    -4.93552  -2.14765  -0.33454
O     1.30928   0.33485   0.76255
C     1.22315   1.20271   1.89684
C     0.92132   2.61186   1.44435
C    -0.47454   2.79484   0.86270
C    -0.71565   4.20867   0.35626
O     1.45846  -1.94856  -0.20876
C     1.69454  -1.60436  -1.57762
C     3.12585  -1.91748  -1.95633
C     4.17101  -0.89652  -1.51730
C     4.40619  -0.79729  -0.01855
H    -2.09773  -2.23237  -0.52143
H    -2.09968  -1.57999   1.13354
H    -3.06488  -0.16211  -1.41843
H    -2.87160   0.64888   0.13748
H    -5.23498  -0.01210  -0.33030
H    -4.61684  -0.65094   1.18395
H    -5.97571  -2.35684  -0.04125
H    -4.86237  -2.28700  -1.42576
H    -4.31010  -2.91795   0.14069
H     2.19279   1.15626   2.41680
H     0.45608   0.82392   2.59224
H     1.67897   2.91054   0.69947
H     1.06167   3.28280   2.31039
H    -1.22066   2.53719   1.63628
H    -0.62395   2.06633   0.04853
H    -0.58400   4.94792   1.16328
H    -0.00539   4.47036  -0.44351
H    -1.73035   4.33275  -0.05262
H     0.99372  -2.19106  -2.19181
H     1.47285  -0.53756  -1.74907
H     3.15188  -2.00337  -3.05597
H     3.37623  -2.91705  -1.56109
H     3.87949   0.09355  -1.91293
H     5.11944  -1.15226  -2.01948
H     4.67817  -1.77533   0.40805
H     3.51052  -0.44052   0.50528
H     5.22309  -0.09488   0.20644
