22
Generated by autodE on: 2021-10-13. E = -291.859844 Ha
C    -1.18834  -2.35054   0.06359
C    -1.28782  -0.84174  -0.09276
N    -0.00198  -0.21287  -0.31514
C    -0.05547   1.00966  -1.09152
C    -0.62608   2.24813  -0.40106
C     0.83163  -0.16277   0.86733
C     2.30288   0.04690   0.55794
H    -2.18878  -2.80338   0.13059
H    -0.64232  -2.64251   0.97339
H    -0.65865  -2.78868  -0.79530
H    -1.82600  -0.41182   0.78267
H    -1.92051  -0.62328  -0.96853
H    -0.64621   0.79171  -1.99741
H     0.95931   1.24076  -1.45589
H    -0.62780   3.10189  -1.09647
H    -0.03129   2.54512   0.47625
H    -1.66117   2.08864  -0.05924
H     0.72492  -1.12650   1.38659
H     0.48562   0.60439   1.59760
H     2.63908  -0.68486  -0.19130
H     2.90958  -0.08157   1.46673
H     2.50951   1.05321   0.16193
