14
Generated by autodE on: 2022-01-22. E = -398.238327 Ha
N     1.78269  -0.34538   0.16004
C     0.34419  -0.37363   0.30179
C    -0.12049   0.95264   0.88952
O    -1.51839   0.94200   0.96654
H     0.04698  -1.18076   0.98842
H     2.13860  -1.27735  -0.03793
H     2.01666   0.22782  -0.65128
H     0.36775   1.07246   1.87484
H     0.25397   1.76006   0.22864
H    -1.82114   1.82563   1.19237
C    -0.36575  -0.58353  -1.02790
O    -0.07018   0.01605  -2.03120
O    -1.32846  -1.50350  -0.98460
H    -1.72642  -1.53252  -1.86926
