10
Generated by autodE on: 2022-01-24. E = -172.067780 Ha
C    -1.80819   0.77475   0.14587
C    -0.50690   0.21822  -0.10168
N     0.53023  -0.22678  -0.30937
C     1.81064  -0.77557  -0.56309
H    -2.25838   1.08634  -0.81021
H    -2.44618   0.01386   0.62302
H    -1.71275   1.64769   0.81107
H     2.13402  -1.34176   0.32183
H     1.74380  -1.44138  -1.43505
H     2.51372   0.04462  -0.76599
