13
Generated by autodE on: 2022-01-24. E = -248.297537 Ha
C    -0.43661   1.26588   0.01443
C    -0.16668  -0.19208  -0.05794
C    -1.27608  -1.13699  -0.41566
N     0.91199  -0.83825   0.14225
O     2.08373   0.19719   0.52430
H    -0.82776   1.59762  -0.96012
H    -1.24071   1.43588   0.74751
H     0.44034   1.86226   0.28332
H    -1.67156  -0.85449  -1.40328
H    -0.93891  -2.18081  -0.43908
H    -2.08196  -1.02644   0.32602
H     2.78043   0.01377  -0.13798
H     2.42387  -0.14353   1.37623
